Circuit: * F:\ER LT SPICE\TP 1- Traceur de courbes\5-GENERATEUR VCE\GENERATEUR VCE.asc

WARNING: Less than two connections to node N001.  This node is used by Q2.
WARNING: Less than two connections to node VSS.  This node is used by VSS.
WARNING: Less than two connections to node SF25.  This node is used by V§F25.
Direct Newton iteration for .op point succeeded.

Date: Fri Jan 06 14:39:18 2017
Total elapsed time: 0.733 seconds.

tnom = 27
temp = 27
method = modified trap
totiter = 7062
traniter = 7039
tranpoints = 3517
accept = 3154
rejected = 363
matrix size = 12
fillins = 0
solver = Normal
Matrix Compiler1: 516 octets object code size  0.5/0.3/[0.2]
Matrix Compiler2: off  [0.2]/0.3/0.3


