Circuit: * F:\ER LT SPICE\TP 1- Traceur de courbes\7-MESURE DE IC\mesure ic.asc

WARNING: Less than two connections to node VS.  This node is used by R2B.
WARNING: Less than two connections to node VCC.  This node is used by VCC.
WARNING: Less than two connections to node VSS.  This node is used by VSS.
Direct Newton iteration for .op point succeeded.

Date: Fri Jan 06 15:10:36 2017
Total elapsed time: 0.467 seconds.

tnom = 27
temp = 27
method = modified trap
totiter = 2755
traniter = 2752
tranpoints = 1377
accept = 1346
rejected = 31
matrix size = 10
fillins = 0
solver = Normal
Matrix Compiler1: 238 octets object code size  0.1/0.1/[0.0]
Matrix Compiler2: off  [0.2]/0.2/0.2


