Stray ".ends" card: .ends
Stray ".ends" card: .ends
Circuit: * I:\ER LT SPICE\TP 1- Traceur de courbes\3-ACCUMULATEUR\Accumulateur.asc

Direct Newton iteration failed to find .op point.  (Use ".option noopiter" to skip.)
Starting Gmin stepping
Increasing initial diagonal Gmin to 100
Increasing initial diagonal Gmin to 1000
Gmin = 1000
vernier = 0.5
vernier = 0.25
vernier = 0.125
vernier = 0.0625
Gmin = 640
vernier = 0.03125
vernier = 0.015625
vernier = 0.0078125
vernier = 0.00390625
Gmin = 636.888
vernier = 0.00195313
vernier = 0.000976563
vernier = 0.000488281
Gmin = 0
Gmin stepping succeeded in finding the operating point.


Date: Tue Dec 13 09:31:23 2016
Total elapsed time: 0.327 seconds.

tnom = 27
temp = 27
method = modified trap
totiter = 19682
traniter = 18086
tranpoints = 8021
accept = 6858
rejected = 1163
matrix size = 45
fillins = 72
solver = Normal
Matrix Compiler1: 6.43 KB object code size  1.3/0.6/[0.3]
Matrix Compiler2: off  [1.2]/1.7/1.6


