Stray ".ends" card: .ends
Stray ".ends" card: .ends
Circuit: * I:\ER LT SPICE\TP 1- Traceur de courbes\6-ADAPTATION TRIANGLE\Adaptation Triangle.asc

Direct Newton iteration failed to find .op point.  (Use ".option noopiter" to skip.)
Starting Gmin stepping
Increasing initial diagonal Gmin to 100
Increasing initial diagonal Gmin to 1000
Gmin = 1000
vernier = 0.5
vernier = 0.25
vernier = 0.125
vernier = 0.0625
Gmin = 640
vernier = 0.03125
vernier = 0.015625
vernier = 0.0078125
vernier = 0.00390625
Gmin = 636.888
vernier = 0.00195313
vernier = 0.000976563
vernier = 0.000488281
Gmin = 0
Gmin stepping failed

Starting source stepping with srcstepmethod=0
Source Step = 3.0303%
Source Step = 33.3333%
Source Step = 63.6364%
Source Step = 93.9394%
Source stepping succeeded in finding the operating point.


Date: Tue Dec 13 10:13:50 2016
Total elapsed time: 0.156 seconds.

tnom = 27
temp = 27
method = modified trap
totiter = 4505
traniter = 2636
tranpoints = 1319
accept = 1283
rejected = 36
matrix size = 34
fillins = 39
solver = Normal
Matrix Compiler1: 3.18 KB object code size  1.8/0.8/[0.6]
Matrix Compiler2: off  [1.1]/1.9/2.2


