Stray ".ends" card: .ends
Stray ".ends" card: .ends
Circuit: * I:\ER LT SPICE\TP 1- Traceur de courbes\1-RAZ\RAZ.asc

WARNING: Specified period is not longer than the sum of Trise, Tfall, and Ton for v3.  Increasing period to 0.001001
Direct Newton iteration for .op point succeeded.

Date: Tue Dec 13 09:22:30 2016
Total elapsed time: 0.110 seconds.

tnom = 27
temp = 27
method = modified trap
totiter = 6073
traniter = 6051
tranpoints = 2272
accept = 1912
rejected = 360
matrix size = 35
fillins = 36
solver = Normal
Matrix Compiler1: 3.21 KB object code size  1.3/0.6/[0.5]
Matrix Compiler2: off  [0.6]/0.7/0.8


