Stray ".ends" card: .ends
Stray ".ends" card: .ends
Circuit: * I:\ER LT SPICE\TP 1- Traceur de courbes\OSCILLATEUR\OSCILLATEUR.asc

Direct Newton iteration for .op point succeeded.

Date: Tue Dec 13 10:46:11 2016
Total elapsed time: 0.202 seconds.

tnom = 27
temp = 27
method = modified trap
totiter = 5488
traniter = 5467
tranpoints = 2022
accept = 1723
rejected = 299
matrix size = 33
fillins = 49
solver = Normal
Matrix Compiler1: 3.97 KB object code size  2.9/1.4/[1.0]
Matrix Compiler2: off  [1.4]/1.6/1.7


