Circuit: * F:\ER LT SPICE\TP 1- Traceur de courbes\4-ADAPTATION A Ib\ADAPTATION IB.asc

Direct Newton iteration for .op point succeeded.

Date: Fri Jan 06 13:48:20 2017
Total elapsed time: 0.359 seconds.

tnom = 27
temp = 27
method = modified trap
totiter = 2691
traniter = 2688
tranpoints = 1345
accept = 1345
rejected = 0
matrix size = 6
fillins = 0
solver = Normal
Matrix Compiler1: 200 octets object code size  0.2/0.1/[0.1]
Matrix Compiler2: 336 octets object code size  0.1/0.1/[0.1]


