Circuit: * I:\ER LT SPICE\TP 1- Traceur de courbes\ADAPTATION A Ib\Draft5.asc

Direct Newton iteration for .op point succeeded.

Date: Wed Nov 30 17:22:59 2016
Total elapsed time: 0.144 seconds.

tnom = 27
temp = 27
method = modified trap
totiter = 2123
traniter = 2120
tranpoints = 1061
accept = 1061
rejected = 0
matrix size = 2
fillins = 0
solver = Normal
Matrix Compiler1:       2 opcodes  0.1/[0.0]/0.1
Matrix Compiler2: off  [0.0]/0.1/0.0


